# This file is shared by all tictoc simulations.
# Lines beginning with `#' are comments
[General]
cmdenv-express-mode = true
cmdenv-autoflush = true
cmdenv-status-frequency = 1s
**.cmdenv-log-level = info
network = SimpleScenarioNetwork
image-path = ../../images

##########################################################
#            Simulation parameters                       #
##########################################################
debug-on-errors = true
print-undisposed = true

sim-time-limit = ${simTimeLimit = 200s}

**.scalar-recording = true
**.vector-recording = true

*.playgroundSizeX = 3500m
*.playgroundSizeY = 3500m
*.playgroundSizeZ = 50m

##########################################################
# Annotation parameters                                  #
##########################################################
*.annotations.draw = true

##########################################################
# Obstacle parameters                                    #
##########################################################
*.obstacles.obstacles = xmldoc("config.xml", "//AnalogueModel[@type='SimpleObstacleShadowing']/obstacles")

##########################################################
#            DroCIManager parameters                     #
##########################################################
*.dManager.updateInterval = ${updateInterval = 0.01s}
*.dManager.simTimeLimit = ${simTimeLimit}
*.dManager.host = "localhost"
*.dManager.moduleType = "veins_libairmobisim.node.Uav"

##########################################################
#            TraCIScenarioManager parameters             #
##########################################################
*.manager.updateInterval = ${updateInterval}
*.manager.host = "localhost"
*.manager.port = 9999
*.manager.autoShutdown = true
*.manager.launchConfig = xmldoc("erlangen.launchd.xml")
*.manager.configFile = "erlangen.sumo.cfg"
*.manager.moduleDisplayString = ""
*.manager.moduleType = "vtype0=org.car2x.veins.nodes.Car"
*.manager.moduleName = "vtype0=node"


##########################################################
#            11p specific parameters                     #
#                                                        #
#                    NIC-Settings                        #
##########################################################
*.connectionManager.sendDirect = true
*.connectionManager.maxInterfDist = 2600m
*.connectionManager.drawMaxIntfDist = false

*.**.nic.mac1609_4.useServiceChannel = false

*.**.nic.mac1609_4.txPower = 20mW
*.**.nic.mac1609_4.bitrate = 6Mbps
*.**.nic.phy80211p.minPowerLevel = -110dBm

*.**.nic.phy80211p.useNoiseFloor = true
*.**.nic.phy80211p.noiseFloor = -98dBm

*.**.nic.phy80211p.decider = xmldoc("config.xml")
*.**.nic.phy80211p.analogueModels = xmldoc("config.xml")
*.**.nic.phy80211p.usePropagationDelay = true

*.**.nic.phy80211p.antenna = xmldoc("antenna.xml", "/root/Antenna[@id='monopole']")
*.node[*].nic.phy80211p.antennaOffsetY = 0 m
*.node[*].nic.phy80211p.antennaOffsetZ = 1.895 m


##########################################################
#                      Mobility                          #
##########################################################
*.uav[*].drociMobility.x = 0
*.uav[*].drociMobility.y = 0
*.uav[*].drociMobility.z = 0

*.node[*].veinsmobility.x = 0
*.node[*].veinsmobility.y = 0
*.node[*].veinsmobility.z = 0
##########################################################
#                      App Layer                         #
##########################################################
*.node[*].applType = "TraCIDemo11p"



[Config Default]

output-vector-file =  ${resultdir}/Default_${runnumber}.vec
output-scalar-file =  ${resultdir}/Default_${runnumber}.sca
