# This file is shared by all tictoc simulations.
# Lines beginning with `#' are comments
[General]
cmdenv-express-mode = true
cmdenv-autoflush = true
cmdenv-status-frequency = 1s
**.cmdenv-log-level = info
network = SimpleScenarioNetwork
image-path = ../../images

##########################################################
#            Simulation parameters                       #
##########################################################
debug-on-errors = true
print-undisposed = true

sim-time-limit = ${simTimeLimit = 30s}

**.scalar-recording = true
**.vector-recording = true

*.playgroundSizeX = 3500m
*.playgroundSizeY = 3500m
*.playgroundSizeZ = 50m

##########################################################
# Annotation parameters                                  #
##########################################################
*.annotations.draw = true

##########################################################
# Obstacle parameters                                    #
##########################################################
*.obstacles.obstacles = xmldoc("config.xml", "//AnalogueModel[@type='SimpleObstacleShadowing']/obstacles")

##########################################################
#            TraCIScenarioManager parameters             #
##########################################################
*.manager.updateInterval = ${updateInterval = 0.01s}
*.manager.simTimeLimit = ${simTimeLimit}
*.manager.host = "localhost"

*.tManager.updateInterval = ${updateInterval}
*.tManager.host = "localhost"
*.tManager.port = 9999
*.tManager.autoShutdown = true
*.tManager.launchConfig = xmldoc("erlangen.launchd.xml")
*.tManager.configFile = "erlangen.sumo.cfg"



##########################################################
#            11p specific parameters                     #
#                                                        #
#                    NIC-Settings                        #
##########################################################
*.connectionManager.sendDirect = true
*.connectionManager.maxInterfDist = 2600m
*.connectionManager.drawMaxIntfDist = false

*.**.nic.mac1609_4.useServiceChannel = false

*.**.nic.mac1609_4.txPower = 20mW
*.**.nic.mac1609_4.bitrate = 6Mbps
*.**.nic.phy80211p.minPowerLevel = -110dBm

*.**.nic.phy80211p.useNoiseFloor = true
*.**.nic.phy80211p.noiseFloor = -98dBm

*.**.nic.phy80211p.decider = xmldoc("config.xml")
*.**.nic.phy80211p.analogueModels = xmldoc("config.xml")
*.**.nic.phy80211p.usePropagationDelay = true

*.**.nic.phy80211p.antenna = xmldoc("antenna.xml", "/root/Antenna[@id='monopole']")
*.node[*].nic.phy80211p.antennaOffsetY = 0 m
*.node[*].nic.phy80211p.antennaOffsetZ = 1.895 m


##########################################################
#                      Mobility                          #
##########################################################
*.uav[*].drociMobility.x = 0
*.uav[*].drociMobility.y = 0
*.uav[*].drociMobility.z = 0

*.node[*].veinsmobility.x = 0
*.node[*].veinsmobility.y = 0
*.node[*].veinsmobility.z = 0
##########################################################
#                      App Layer                         #
##########################################################
*.node[*].applType = "ExampleAirMobiSimApp"


